testData/tamu2000/pfcases_100_zone3/Equ_tx2000_hr_4765_mod_v23_zone3_pslf.raw
0  100.000 
THIS IS A SYNTHETIC POWER SYSTEM MODEL THAT DOES NOT REPRESE
DATA RESEARCH PROJECT AND CONTAINS NO CEII.
1033,  2,  257.047,  -58.015,  0.000,  0.000,  1,  1.00040,  -115.0818,  'MCCAMEY ',  230.00,  9
1048,  2,  119.163,  9.690,  0.000,  0.000,  1,  1.00000,  -89.9530,  'MONAHANS',  18.000,  9
1049,  2,  86.672,  17.912,  0.000,  0.000,  1,  1.00000,  -81.2186,  'MONAHANS',  18.000,  9
1053,  2,  72.216,  -13.838,  0.000,  0.000,  1,  1.00176,  -106.8512,  'MONAHANS',  230.00,  9
1063,  2,  96.339,  3.688,  0.000,  0.000,  1,  1.02044,  -110.5993,  'BIG SPRI',  13.800,  9
1072,  3,  70.781,  -3.441,  0.000,  0.000,  1,  1.01000,  -110.6337,  'ODESSA 1',  18.000,  9
1073,  2,  49.014,  1.712,  0.000,  0.000,  1,  1.01000,  -103.8495,  'ODESSA 1',  18.000,  9
1074,  2,  50.695,  4.226,  0.000,  0.000,  1,  1.01000,  -104.3063,  'ODESSA 1',  18.000,  9
1075,  2,  60.618,  4.191,  0.000,  0.000,  1,  1.01000,  -106.2539,  'ODESSA 1',  18.000,  9
1076,  2,  135.330,  -5.755,  0.000,  0.000,  1,  1.01000,  -110.1791,  'ODESSA 1',  18.000,  9
1077,  2,  52.050,  3.778,  0.000,  0.000,  1,  1.01000,  -104.6241,  'ODESSA 1',  18.000,  9
1081,  2,  146.376,  -41.428,  0.000,  0.000,  1,  1.01000,  -111.1725,  'ODESSA 1',  230.00,  9
2004,  2,  137.847,  -17.126,  0.000,  0.000,  2,  1.02000,  -122.3503,  'SAVOY 2 ',  13.800,  11
2005,  2,  119.912,  -15.259,  0.000,  0.000,  2,  1.02000,  -122.1894,  'SAVOY 3 ',  13.800,  11
2006,  2,  80.387,  -10.008,  0.000,  0.000,  2,  1.02000,  -121.5681,  'SAVOY 4 ',  13.800,  11
2013,  2,  5.132,  -10.327,  0.000,  0.000,  2,  1.03656,  -121.3202,  'PANHANDL',  18.000,  10
2019,  2,  5.459,  32.605,  0.000,  0.000,  2,  1.04000,  -121.3267,  'PANHANDL',  20.000,  10
2024,  2,  99.979,  -8.984,  0.000,  0.000,  2,  1.02000,  -120.5736,  'PARIS 2 ',  13.800,  11
2057,  3,  276.038,  -70.727,  0.000,  0.000,  2,  0.99000,  -123.7791,  'WICHITA ',  18.000,  11
2062,  2,  74.160,  -24.863,  0.000,  0.000,  2,  1.02000,  -127.4208,  'VERNON 1',  18.000,  10
2100,  2,  12.246,  8.940,  0.000,  0.000,  2,  1.02119,  -120.6804,  'RALLS 1 ',  18.000,  10
2103,  2,  199.264,  -20.825,  0.000,  0.000,  2,  1.02079,  -123.4115,  'SHERMAN ',  20.000,  11
2104,  2,  147.936,  -15.932,  0.000,  0.000,  2,  1.01965,  -123.2393,  'SHERMAN ',  20.000,  11
2105,  2,  91.542,  -10.947,  0.000,  0.000,  2,  1.01700,  -122.8131,  'SHERMAN ',  20.000,  11
2115,  2,  70.531,  -7.779,  0.000,  0.000,  2,  1.01581,  -119.1701,  'PARIS 1 ',  13.800,  11
2116,  2,  124.217,  -11.098,  0.000,  0.000,  2,  1.01979,  -120.5308,  'PARIS 1 ',  13.800,  11
2117,  2,  62.991,  -6.215,  0.000,  0.000,  2,  1.01369,  -118.7217,  'PARIS 1 ',  13.800,  11
2118,  2,  63.184,  -6.825,  0.000,  0.000,  2,  1.01261,  -118.3638,  'PARIS 1 ',  13.800,  11
2119,  2,  97.805,  -9.655,  0.000,  0.000,  2,  1.01884,  -120.2107,  'PARIS 1 ',  13.800,  11
2120,  2,  61.969,  -6.541,  0.000,  0.000,  2,  1.01324,  -118.5067,  'PARIS 1 ',  13.800,  11
2123,  2,  6.465,  6.657,  0.000,  0.000,  2,  1.02854,  -120.8187,  'PANHANDL',  161.00,  10
2127,  2,  139.195,  -202.972,  0.000,  0.000,  2,  1.04597,  -122.2077,  'MIAMI 0 ',  500.00,  10
3045,  2,  44.331,  -2.166,  0.000,  0.000,  3,  1.04000,  -116.4779,  'SILVER 4',  13.800,  27
3048,  2,  1137.771,  -670.903,  0.000,  0.000,  3,  1.04414,  -121.9426,  'ROSCOE 5',  500.00,  27
3055,  2,  96.491,  -1.956,  0.000,  0.000,  3,  1.04000,  -122.2761,  'WINGATE ',  13.800,  27
3056,  2,  45.815,  1.946,  0.000,  0.000,  3,  1.04000,  -121.8475,  'WINGATE ',  13.800,  27
3057,  2,  47.086,  1.504,  0.000,  0.000,  3,  1.04000,  -121.8755,  'WINGATE ',  13.800,  27
3081,  2,  27.127,  1.893,  0.000,  0.000,  3,  1.04000,  -121.3019,  'HERMLEIG',  20.000,  27
3106,  3,  46.544,  -6.831,  0.000,  0.000,  3,  1.00000,  -123.0945,  'BUCHANAN',  13.200,  28
4026,  2,  311.895,  15.363,  0.000,  0.000,  4,  1.03000,  -123.6746,  'CHRISTIN',  13.800,  20
4030,  3,  293.005,  41.433,  0.000,  0.000,  4,  1.01000,  -109.1984,  'FANNIN 2',  13.800,  21
4047,  2,  71.759,  9.273,  0.000,  0.000,  4,  1.02000,  -155.1368,  'FALCON H',  13.800,  19
4058,  2,  50.051,  26.850,  0.000,  0.000,  4,  1.03000,  -133.8306,  'GREGORY ',  13.800,  21
4059,  2,  59.128,  30.412,  0.000,  0.000,  4,  1.03000,  -134.2601,  'GREGORY ',  13.800,  21
4060,  2,  39.278,  18.688,  0.000,  0.000,  4,  1.03000,  -132.6438,  'GREGORY ',  13.800,  21
4061,  2,  52.149,  27.975,  0.000,  0.000,  4,  1.03000,  -132.5907,  'GREGORY ',  13.800,  21
4062,  2,  42.796,  22.302,  0.000,  0.000,  4,  1.03000,  -131.6224,  'GREGORY ',  13.800,  21
4063,  2,  51.023,  28.216,  0.000,  0.000,  4,  1.03000,  -132.5108,  'GREGORY ',  13.800,  21
4082,  2,  83.753,  22.649,  0.000,  0.000,  4,  1.04000,  -137.9759,  'CORPUS C',  13.800,  21
4083,  2,  100.515,  19.658,  0.000,  0.000,  4,  1.04000,  -138.4256,  'CORPUS C',  13.800,  21
4084,  2,  177.460,  30.122,  0.000,  0.000,  4,  1.04000,  -140.8074,  'CORPUS C',  13.800,  21
4085,  2,  209.511,  37.248,  0.000,  0.000,  4,  1.04000,  -139.5509,  'CORPUS C',  13.800,  21
4115,  2,  194.933,  -18.372,  0.000,  0.000,  4,  1.04000,  -146.7540,  'LAREDO 1',  13.800,  20
4116,  2,  185.277,  -19.142,  0.000,  0.000,  4,  1.04000,  -146.7062,  'LAREDO 1',  13.800,  20
4153,  2,  580.793,  -48.940,  0.000,  0.000,  4,  1.02872,  -151.1365,  'ARMSTRON',  18.000,  21
4160,  2,  227.963,  54.778,  0.000,  0.000,  4,  1.03000,  -137.9128,  'CORPUS C',  13.800,  21
4161,  2,  89.171,  30.459,  0.000,  0.000,  4,  1.03000,  -135.1510,  'CORPUS C',  13.800,  21
4162,  2,  90.625,  28.804,  0.000,  0.000,  4,  1.03000,  -135.2217,  'CORPUS C',  13.800,  21
4192,  2,  1681.538,  36.359,  0.000,  0.000,  4,  1.02000,  -151.9221,  'BROWNSVI',  230.00,  19
5037,  2,  300.856,  5.068,  0.000,  0.000,  5,  1.02000,  -122.1976,  'DALLAS 1',  13.200,  16
5038,  2,  291.268,  5.855,  0.000,  0.000,  5,  1.02000,  -122.1318,  'DALLAS 1',  13.200,  16
5039,  2,  703.218,  -4.929,  0.000,  0.000,  5,  1.02125,  -123.3242,  'DALLAS 1',  13.200,  16
5040,  2,  223.792,  5.549,  0.000,  0.000,  5,  1.02000,  -121.4727,  'DALLAS 1',  13.200,  16
5041,  2,  320.873,  2.682,  0.000,  0.000,  5,  1.02000,  -122.3218,  'DALLAS 1',  13.200,  16
5042,  2,  271.634,  6.426,  0.000,  0.000,  5,  1.02000,  -121.9794,  'DALLAS 1',  13.200,  16
5057,  2,  218.355,  -28.719,  0.000,  0.000,  5,  1.02055,  -119.8702,  'GRAHAM 2',  13.800,  12
5058,  2,  159.351,  -17.949,  0.000,  0.000,  5,  1.01775,  -118.8085,  'GRAHAM 3',  13.800,  12
5067,  2,  448.922,  -0.839,  0.000,  0.000,  5,  1.03000,  -121.8513,  'ARLINGTO',  13.800,  17
5068,  2,  427.385,  -1.486,  0.000,  0.000,  5,  1.03000,  -121.7236,  'ARLINGTO',  13.800,  17
5069,  2,  403.064,  -0.673,  0.000,  0.000,  5,  1.03000,  -121.5530,  'ARLINGTO',  13.800,  17
5166,  2,  206.187,  -13.691,  0.000,  0.000,  5,  1.04000,  -124.1879,  'DENTON 1',  13.800,  17
5206,  2,  142.457,  -12.621,  0.000,  0.000,  5,  1.01957,  -120.2451,  'POOLVILL',  13.800,  12
5207,  2,  248.227,  -25.018,  0.000,  0.000,  5,  1.02231,  -121.3266,  'POOLVILL',  13.800,  12
5208,  2,  199.312,  -19.071,  0.000,  0.000,  5,  1.02149,  -121.0032,  'POOLVILL',  13.800,  12
5262,  2,  395.297,  17.797,  0.000,  0.000,  5,  1.01050,  -116.2760,  'GLEN ROS',  13.800,  18
5263,  2,  542.749,  20.524,  0.000,  0.000,  5,  1.01321,  -117.5136,  'GLEN ROS',  13.800,  18
5281,  2,  193.105,  6.957,  0.000,  0.000,  5,  1.01294,  -119.1805,  'TEMPLE 1',  13.800,  13
5282,  2,  226.280,  7.684,  0.000,  0.000,  5,  1.01404,  -119.5090,  'TEMPLE 1',  13.800,  13
5283,  2,  300.147,  6.771,  0.000,  0.000,  5,  1.01551,  -119.9303,  'TEMPLE 1',  13.800,  13
5298,  2,  397.878,  -17.095,  0.000,  0.000,  5,  1.03626,  -124.4078,  'MCKINNEY',  13.800,  16
5299,  2,  169.437,  0.382,  0.000,  0.000,  5,  1.04000,  -124.0032,  'MCKINNEY',  13.800,  16
5300,  2,  206.792,  -1.075,  0.000,  0.000,  5,  1.04000,  -124.1384,  'MCKINNEY',  13.800,  16
5302,  2,  235.358,  6.639,  0.000,  0.000,  5,  1.04000,  -121.6503,  'MCKINNEY',  13.800,  16
5303,  2,  325.749,  -0.214,  0.000,  0.000,  5,  1.04000,  -122.4489,  'MCKINNEY',  13.800,  16
5319,  2,  206.287,  -1.976,  0.000,  0.000,  5,  1.01241,  -120.0080,  'GRANBURY',  13.200,  18
5320,  2,  189.071,  -3.480,  0.000,  0.000,  5,  1.01210,  -119.7945,  'GRANBURY',  13.200,  18
5321,  2,  214.417,  -1.743,  0.000,  0.000,  5,  1.01274,  -120.0940,  'GRANBURY',  13.200,  18
5324,  2,  246.895,  8.220,  0.000,  0.000,  5,  1.04000,  -121.8445,  'DALLAS 2',  13.800,  17
5325,  2,  246.776,  10.034,  0.000,  0.000,  5,  1.04000,  -121.8385,  'DALLAS 2',  13.800,  17
5326,  2,  738.382,  -23.513,  0.000,  0.000,  5,  1.03894,  -123.9097,  'DALLAS 2',  13.800,  17
5343,  2,  164.827,  -0.909,  0.000,  0.000,  5,  1.04000,  -126.8620,  'LEWISVIL',  13.800,  17
5360,  3,  215.016,  13.259,  0.000,  0.000,  5,  1.01000,  -118.7581,  'RIESEL 1',  13.800,  13
5364,  2,  255.826,  -17.476,  0.000,  0.000,  5,  1.02151,  -121.4596,  'BRIDGEPO',  13.800,  12
5365,  2,  130.433,  -7.598,  0.000,  0.000,  5,  1.01886,  -120.4221,  'BRIDGEPO',  13.800,  12
5366,  2,  119.753,  -7.776,  0.000,  0.000,  5,  1.01826,  -120.1460,  'BRIDGEPO',  13.800,  12
5367,  2,  121.679,  -7.231,  0.000,  0.000,  5,  1.01834,  -120.2137,  'BRIDGEPO',  13.800,  12
5368,  2,  169.808,  -10.934,  0.000,  0.000,  5,  1.02030,  -120.9531,  'BRIDGEPO',  13.800,  12
5369,  2,  114.455,  -7.361,  0.000,  0.000,  5,  1.01796,  -120.0258,  'BRIDGEPO',  13.800,  12
5382,  2,  237.973,  16.983,  0.000,  0.000,  5,  1.04000,  -122.2002,  'ENNIS 2 ',  13.800,  14
5383,  2,  209.114,  16.834,  0.000,  0.000,  5,  1.04000,  -122.0067,  'ENNIS 3 ',  13.800,  14
5415,  2,  88.600,  -13.994,  0.000,  0.000,  5,  1.02425,  -121.4862,  'PALO PIN',  13.800,  12
5416,  2,  88.383,  -13.553,  0.000,  0.000,  5,  1.02413,  -121.4729,  'PALO PIN',  13.800,  12
5417,  2,  98.787,  -15.281,  0.000,  0.000,  5,  1.02462,  -121.6212,  'PALO PIN',  13.800,  12
5418,  2,  101.577,  -17.034,  0.000,  0.000,  5,  1.02509,  -121.6824,  'PALO PIN',  13.800,  12
5419,  2,  167.525,  -27.459,  0.000,  0.000,  5,  1.02646,  -122.1111,  'PALO PIN',  13.800,  12
5444,  2,  1576.965,  -77.190,  0.000,  0.000,  5,  1.01803,  -121.7946,  'MIDLOTHI',  500.00,  17
6006,  2,  91.304,  -0.236,  0.000,  0.000,  6,  1.04000,  -115.1007,  'BASTROP ',  13.800,  25
6007,  2,  143.270,  0.713,  0.000,  0.000,  6,  1.04000,  -114.2975,  'BASTROP ',  13.800,  25
6008,  2,  76.640,  3.257,  0.000,  0.000,  6,  1.04000,  -115.0143,  'BASTROP ',  13.800,  25
6009,  2,  51.874,  4.106,  0.000,  0.000,  6,  1.04000,  -114.2756,  'BASTROP ',  13.800,  25
6010,  2,  67.211,  2.470,  0.000,  0.000,  6,  1.04000,  -114.8349,  'BASTROP ',  13.800,  25
6042,  2,  32.048,  7.043,  0.000,  0.000,  6,  1.04000,  -116.7829,  'AUSTIN 3',  13.800,  23
6062,  1,  403.555,  15.194,  0.000,  0.000,  6,  1.00786,  -108.3700,  'BRENHAM ',  500.00,  25
6069,  2,  223.202,  -4.391,  0.000,  0.000,  6,  1.03000,  -115.2627,  'MARION 1',  18.000,  22
6070,  2,  94.397,  2.781,  0.000,  0.000,  6,  1.03000,  -114.0399,  'MARION 1',  18.000,  22
6071,  2,  282.912,  -5.526,  0.000,  0.000,  6,  1.03000,  -115.4396,  'MARION 1',  18.000,  22
6072,  2,  111.138,  3.675,  0.000,  0.000,  6,  1.03000,  -114.4107,  'MARION 1',  18.000,  22
6073,  2,  171.614,  -2.429,  0.000,  0.000,  6,  1.03000,  -114.9789,  'MARION 1',  18.000,  22
6074,  2,  173.032,  -3.583,  0.000,  0.000,  6,  1.03000,  -114.9894,  'MARION 1',  18.000,  22
6078,  2,  75.324,  -18.218,  0.000,  0.000,  6,  1.00000,  -107.0165,  'LA GRANG',  22.000,  25
6079,  2,  131.633,  -35.602,  0.000,  0.000,  6,  1.00000,  -107.6185,  'LA GRANG',  22.000,  25
6080,  2,  105.094,  -26.556,  0.000,  0.000,  6,  1.00000,  -107.4270,  'LA GRANG',  22.000,  25
6106,  2,  122.508,  -15.711,  0.000,  0.000,  6,  1.00921,  -108.7174,  'WINCHEST',  13.800,  25
6110,  2,  217.877,  6.665,  0.000,  0.000,  6,  1.04000,  -117.6002,  'ROCKDALE',  13.800,  25
6111,  2,  220.702,  7.258,  0.000,  0.000,  6,  1.04000,  -117.4882,  'ROCKDALE',  13.800,  25
6145,  2,  219.599,  20.354,  0.000,  0.000,  6,  1.03000,  -111.3757,  'SAN ANTO',  13.800,  22
6146,  2,  227.536,  20.816,  0.000,  0.000,  6,  1.03000,  -111.5353,  'SAN ANTO',  13.800,  22
6147,  3,  260.507,  25.067,  0.000,  0.000,  6,  1.03000,  -111.3517,  'SAN ANTO',  13.800,  22
6148,  2,  412.406,  17.685,  0.000,  0.000,  6,  1.03000,  -114.6285,  'SAN ANTO',  13.800,  22
6149,  2,  725.435,  16.109,  0.000,  0.000,  6,  1.03000,  -115.1440,  'SAN ANTO',  13.800,  22
6164,  2,  143.992,  -1.504,  0.000,  0.000,  6,  1.03000,  -113.0124,  'SEGUIN 1',  13.800,  22
6165,  2,  129.817,  -1.680,  0.000,  0.000,  6,  1.03000,  -112.8402,  'SEGUIN 1',  13.800,  22
6166,  2,  296.455,  -10.118,  0.000,  0.000,  6,  1.03000,  -113.8195,  'SEGUIN 1',  13.800,  22
6167,  2,  163.515,  -2.267,  0.000,  0.000,  6,  1.03000,  -113.2011,  'SEGUIN 1',  13.800,  22
6188,  1,  313.002,  1.660,  0.000,  0.000,  6,  0.95785,  -109.3755,  'COLUMBUS',  230.00,  25
6195,  1,  73.965,  3.588,  0.000,  0.000,  6,  0.95388,  -115.7281,  'INDUSTRY',  115.00,  25
6213,  2,  36.529,  1.108,  0.000,  0.000,  6,  1.04000,  -117.9550,  'MARBLE F',  13.800,  23
6214,  2,  72.272,  0.235,  0.000,  0.000,  6,  1.04000,  -117.0571,  'MARBLE F',  13.800,  23
6215,  2,  320.624,  -32.971,  0.000,  0.000,  6,  1.04000,  -118.4553,  'MARBLE F',  13.800,  23
6216,  2,  127.370,  -7.287,  0.000,  0.000,  6,  1.04000,  -117.8501,  'MARBLE F',  13.800,  23
6243,  2,  164.858,  7.966,  0.000,  0.000,  6,  1.04000,  -113.6051,  'ELMENDOR',  13.800,  22
6244,  2,  195.809,  11.292,  0.000,  0.000,  6,  1.04000,  -112.6216,  'ELMENDOR',  13.800,  22
6245,  2,  216.260,  7.108,  0.000,  0.000,  6,  1.04000,  -113.0285,  'ELMENDOR',  13.800,  22
6246,  2,  393.589,  -4.169,  0.000,  0.000,  6,  1.03672,  -114.0976,  'ELMENDOR',  13.800,  22
6247,  2,  321.933,  -6.230,  0.000,  0.000,  6,  1.03416,  -114.4988,  'ELMENDOR',  13.800,  22
6248,  2,  179.774,  8.777,  0.000,  0.000,  6,  1.04000,  -113.7572,  'ELMENDOR',  13.800,  22
6249,  2,  147.584,  14.502,  0.000,  0.000,  6,  1.04000,  -113.1011,  'ELMENDOR',  13.800,  22
6257,  2,  132.346,  17.746,  0.000,  0.000,  6,  1.02966,  -116.7382,  'AUSTIN 2',  13.800,  23
6258,  2,  70.596,  8.939,  0.000,  0.000,  6,  1.02752,  -115.9490,  'AUSTIN 2',  13.800,  23
6260,  2,  148.676,  18.514,  0.000,  0.000,  6,  1.02930,  -116.3631,  'AUSTIN 2',  13.800,  23
6295,  2,  153.817,  11.252,  0.000,  0.000,  6,  1.03090,  -116.5668,  'CEDAR CR',  13.800,  23
6296,  2,  180.092,  12.750,  0.000,  0.000,  6,  1.03115,  -116.6714,  'CEDAR CR',  13.800,  23
6297,  2,  67.660,  6.339,  0.000,  0.000,  6,  1.02806,  -115.6110,  'CEDAR CR',  13.800,  23
6302,  2,  122.509,  -1.541,  0.000,  0.000,  6,  1.01769,  -112.8280,  'NEW BRAU',  22.000,  22
6303,  2,  340.783,  -8.712,  0.000,  0.000,  6,  1.02204,  -114.5061,  'NEW BRAU',  22.000,  22
6304,  2,  144.417,  -2.944,  0.000,  0.000,  6,  1.01887,  -113.2358,  'NEW BRAU',  22.000,  22
6305,  2,  121.217,  -1.871,  0.000,  0.000,  6,  1.01777,  -112.7966,  'NEW BRAU',  22.000,  22
6341,  1,  114.531,  -26.019,  0.000,  0.000,  6,  0.99655,  -115.4801,  'CHAPPELL',  115.00,  25
6349,  2,  1828.954,  -17.839,  0.000,  0.000,  6,  1.03976,  -118.2234,  'AUSTIN 1',  500.00,  23
7002,  1,  0.000,  0.000,  0.000,  0.000,  7,  1.03268,  -100.0213,  'PASADENA',  500.00,  4
7003,  1,  0.000,  0.000,  0.000,  0.000,  7,  1.02220,  -103.3028,  'PASADENA',  230.00,  4
7004,  1,  0.000,  0.000,  0.000,  0.000,  7,  1.01837,  -107.1679,  'PASADENA',  115.00,  4
7005,  2,  0.000,  0.000,  0.000,  0.000,  7,  1.04000,  -98.4669,  'PASADENA',  13.800,  4
7006,  2,  0.000,  0.000,  0.000,  0.000,  7,  1.04000,  -99.1376,  'PASADENA',  13.800,  4
7007,  2,  0.000,  0.000,  0.000,  0.000,  7,  1.04000,  -98.6909,  'PASADENA',  13.800,  4
7008,  2,  0.000,  0.000,  0.000,  0.000,  7,  1.04000,  -98.6235,  'PASADENA',  13.800,  4
7009,  2,  0.000,  0.000,  0.000,  0.000,  7,  1.04000,  -98.4643,  'PASADENA',  13.800,  4
7010,  1,  0.000,  0.000,  0.000,  0.000,  7,  0.98029,  -115.4406,  'PRAIRIE ',  115.00,  5
7011,  1,  0.000,  0.000,  0.000,  0.000,  7,  1.02484,  -113.5492,  'CONROE 1',  115.00,  5
7012,  1,  0.000,  0.000,  0.000,  0.000,  7,  0.96965,  -111.0485,  'SIMONTON',  115.00,  3
7013,  1,  0.000,  0.000,  0.000,  0.000,  7,  1.00169,  -112.5783,  'HOUSTON ',  115.00,  5
7014,  1,  0.000,  0.000,  0.000,  0.000,  7,  0.99874,  -110.5683,  'HOUSTON ',  115.00,  4
7015,  2,  0.000,  0.000,  0.000,  0.000,  7,  0.99874,  -110.5683,  'HOUSTON ',  18.000,  4
7016,  1,  0.000,  0.000,  0.000,  0.000,  7,  1.00958,  -108.2570,  'HOUSTON ',  115.00,  4
7017,  1,  0.000,  0.000,  0.000,  0.000,  7,  1.00338,  -111.5743,  'HOUSTON ',  115.00,  3
7026,  1,  0.000,  0.000,  0.000,  0.000,  7,  1.01722,  -107.6505,  'BACLIFF ',  115.00,  4
7027,  1,  0.000,  0.000,  0.000,  0.000,  7,  1.00361,  -111.8288,  'SPRING 1',  115.00,  5
7028,  1,  0.000,  -498.954,  0.000,  0.000,  7,  1.01775,  -110.9919,  'HOUSTON ',  115.00,  3
7035,  1,  0.000,  0.000,  0.000,  0.000,  7,  1.01901,  -108.9233,  'CONROE 5',  230.00,  5
7036,  1,  0.000,  0.000,  0.000,  0.000,  7,  1.00904,  -111.1564,  'CONROE 5',  115.00,  5
7037,  1,  0.000,  0.000,  0.000,  0.000,  7,  1.02138,  -104.2022,  'SUGAR LA',  500.00,  3
7038,  1,  0.000,  0.000,  0.000,  0.000,  7,  1.00762,  -105.5985,  'SUGAR LA',  230.00,  3
7039,  1,  0.000,  0.000,  0.000,  0.000,  7,  1.00201,  -109.4803,  'SUGAR LA',  115.00,  3
7040,  1,  0.000,  0.000,  0.000,  0.000,  7,  1.02054,  -104.0257,  'DAYTON 0',  230.00,  4
7041,  1,  0.000,  0.000,  0.000,  0.000,  7,  1.01207,  -107.4397,  'DAYTON 1',  115.00,  4
7045,  2,  118.064,  -11.135,  0.000,  0.000,  7,  0.97626,  -102.9846,  'VICTORIA',  20.000,  6
7046,  2,  162.270,  -11.643,  0.000,  0.000,  7,  0.96610,  -103.8419,  'VICTORIA',  20.000,  6
7047,  1,  0.000,  0.000,  0.000,  0.000,  7,  1.02013,  -104.8461,  'KATY 1 0',  500.00,  3
7048,  1,  0.000,  0.000,  0.000,  0.000,  7,  1.00951,  -106.6426,  'KATY 1 1',  230.00,  3
7049,  1,  0.536,  0.000,  0.000,  0.000,  7,  1.00765,  -110.8833,  'KATY 1 2',  115.00,  3
7050,  1,  0.000,  0.000,  0.000,  0.000,  7,  0.99522,  -114.0805,  'MAGNOLIA',  115.00,  5
7051,  1,  0.000,  0.000,  0.000,  0.000,  7,  1.00443,  -111.4163,  'HOUSTON ',  115.00,  3
7052,  1,  0.000,  0.000,  0.000,  0.000,  7,  1.00266,  -109.8909,  'MISSOURI',  115.00,  3
7053,  1,  0.000,  0.000,  0.000,  0.000,  7,  1.00957,  -105.8552,  'RICHMOND',  115.00,  3
7054,  1,  0.000,  0.000,  0.000,  0.000,  7,  0.99519,  -111.5042,  'HOUSTON ',  115.00,  4
7055,  1,  0.000,  0.000,  0.000,  0.000,  7,  1.00340,  -109.5968,  'HOUSTON ',  115.00,  3
7056,  1,  0.000,  0.000,  0.000,  0.000,  7,  1.01344,  -108.6297,  'SPRING 8',  230.00,  5
7057,  1,  0.000,  0.000,  0.000,  0.000,  7,  1.00120,  -112.1875,  'SPRING 8',  115.00,  5
7058,  1,  262.644,  -29.655,  0.000,  0.000,  7,  0.92113,  -99.1951,  'POINT CO',  500.00,  6
7061,  2,  0.000,  0.000,  0.000,  0.000,  7,  0.93648,  -98.1227,  'POINT CO',  13.800,  6
...
 0 /End of Bus data, Begin Generator data
1033,  '1',  34.872,  -40.030,  59.210,  -40.030,  1.00000,  0,  333.600,  0.00000,  1.00000,  0.00000,  0.00000,  1.00000,  1,  100.0,  278.000,  83.400
1048,  '1',  279.670,  30.879,  165.530,  -36.100,  1.00000,  0,  390.240,  0.00000,  0.10170,  0.00000,  0.00000,  1.00000,  1,  100.0,  325.200,  97.560
1049,  '1',  279.670,  51.754,  165.530,  -36.100,  1.00000,  0,  390.240,  0.00000,  0.13490,  0.00000,  0.00000,  1.00000,  1,  100.0,  325.200,  97.560
1053,  '1',  128.740,  -19.850,  91.010,  -19.850,  1.00000,  0,  214.560,  0.00000,  0.16870,  0.00000,  0.00000,  1.00000,  1,  100.0,  178.800,  53.640
1063,  '1',  140.989,  0.000,  0.000,  0.000,  1.01000,  0,  276.000,  0.00000,  1.00000,  0.00000,  0.00000,  1.00000,  1,  100.0,  230.000,  69.000
1072,  '1',  70.326,  -0.761,  97.800,  -21.330,  1.01000,  0,  230.560,  0.00000,  0.30820,  0.00000,  0.00000,  1.00000,  1,  100.0,  192.130,  57.640
1073,  '1',  138.330,  -0.522,  97.800,  -21.330,  1.01000,  0,  230.560,  0.00000,  0.19480,  0.00000,  0.00000,  1.00000,  1,  100.0,  192.130,  57.640
1074,  '1',  138.330,  6.383,  97.800,  -21.330,  1.01000,  0,  230.560,  0.00000,  0.20960,  0.00000,  0.00000,  1.00000,  1,  100.0,  192.130,  57.640
1075,  '1',  138.330,  5.497,  97.800,  -21.330,  1.01000,  0,  230.560,  0.00000,  0.12370,  0.00000,  0.00000,  1.00000,  1,  100.0,  192.130,  57.640
1076,  '1',  138.330,  3.303,  97.800,  -21.330,  1.01000,  0,  230.560,  0.00000,  0.10660,  0.00000,  0.00000,  1.00000,  1,  100.0,  192.130,  57.640
1077,  '1',  138.330,  5.062,  97.800,  -21.330,  1.01000,  0,  230.560,  0.00000,  0.15380,  0.00000,  0.00000,  1.00000,  1,  100.0,  192.130,  57.640
1081,  '1',  246.390,  17.065,  145.830,  -31.800,  1.01000,  0,  343.800,  0.00000,  0.14960,  0.00000,  0.00000,  1.00000,  1,  100.0,  286.500,  85.950
2004,  '1',  117.540,  -26.517,  199.430,  -43.490,  1.02000,  0,  470.160,  0.00000,  0.10640,  0.00000,  0.00000,  1.00000,  1,  100.0,  391.800,  117.540
2005,  '1',  117.540,  -23.127,  199.430,  -43.490,  1.02000,  0,  470.160,  0.00000,  0.22750,  0.00000,  0.00000,  1.00000,  1,  100.0,  391.800,  117.540
2006,  '1',  117.540,  -13.880,  199.430,  -43.490,  1.02000,  0,  470.160,  0.00000,  0.20040,  0.00000,  0.00000,  1.00000,  1,  100.0,  391.800,  117.540
2013,  '1',  37.184,  -28.890,  42.730,  -28.890,  1.00000,  0,  240.720,  0.00000,  1.00000,  0.00000,  0.00000,  1.00000,  1,  100.0,  200.600,  60.180
2019,  '1',  67.854,  17.221,  46.430,  -31.390,  1.04000,  0,  261.600,  0.00000,  1.00000,  0.00000,  0.00000,  1.00000,  1,  100.0,  218.000,  65.400
2024,  '1',  120.000,  -14.573,  84.830,  -18.500,  1.02000,  0,  200.000,  0.00000,  0.15080,  0.00000,  0.00000,  1.00000,  1,  100.0,  166.670,  50.000
2057,  '1',  98.610,  -212.213,  335.520,  -87.840,  0.99000,  0,  864.000,  0.00000,  0.17700,  0.00000,  0.00000,  1.00000,  1,  100.0,  720.000,  216.000
2062,  '1',  30.436,  -15.890,  28.840,  -19.500,  1.02000,  0,  162.480,  0.00000,  1.00000,  0.00000,  0.00000,  1.00000,  1,  100.0,  135.400,  40.620
2100,  '1',  42.416,  -21.600,  31.950,  -21.600,  1.02000,  0,  180.000,  0.00000,  1.00000,  0.00000,  0.00000,  1.00000,  1,  100.0,  150.000,  45.000
2103,  '1',  80.320,  -29.720,  136.280,  -29.720,  1.00000,  0,  321.280,  0.00000,  0.33430,  0.00000,  0.00000,  1.00000,  1,  100.0,  267.730,  80.320
2104,  '1',  80.320,  -29.720,  136.280,  -29.720,  1.00000,  0,  321.280,  0.00000,  0.31470,  0.00000,  0.00000,  1.00000,  1,  100.0,  267.730,  80.320
2105,  '1',  80.320,  -29.720,  136.280,  -29.720,  1.00000,  0,  321.280,  0.00000,  0.14160,  0.00000,  0.00000,  1.00000,  1,  100.0,  267.730,  80.320
2115,  '1',  133.000,  -20.500,  94.020,  -20.500,  1.00000,  0,  221.660,  0.00000,  0.14250,  0.00000,  0.00000,  1.00000,  1,  100.0,  184.720,  55.410
2116,  '1',  133.000,  -20.500,  94.020,  -20.500,  1.00000,  0,  221.660,  0.00000,  0.18690,  0.00000,  0.00000,  1.00000,  1,  100.0,  184.720,  55.410
2117,  '1',  133.000,  -20.500,  94.020,  -20.500,  1.00000,  0,  221.660,  0.00000,  0.32540,  0.00000,  0.00000,  1.00000,  1,  100.0,  184.720,  55.410
2118,  '1',  133.000,  -20.500,  94.020,  -20.500,  1.00000,  0,  221.660,  0.00000,  0.10610,  0.00000,  0.00000,  1.00000,  1,  100.0,  184.720,  55.410
2119,  '1',  133.000,  -20.500,  94.020,  -20.500,  1.00000,  0,  221.660,  0.00000,  0.13600,  0.00000,  0.00000,  1.00000,  1,  100.0,  184.720,  55.410
2120,  '1',  133.000,  -20.500,  94.020,  -20.500,  1.01000,  0,  221.660,  0.00000,  0.20680,  0.00000,  0.00000,  1.00000,  1,  100.0,  184.720,  55.410
2123,  '1',  40.394,  -26.160,  38.700,  -26.160,  1.00000,  0,  218.040,  0.00000,  1.00000,  0.00000,  0.00000,  1.00000,  1,  100.0,  181.700,  54.510
2127,  '1',  39.008,  -41.560,  61.470,  -41.560,  1.04000,  0,  346.320,  0.00000,  1.00000,  0.00000,  0.00000,  1.00000,  1,  100.0,  288.600,  86.580
3045,  '1',  134.100,  4.170,  227.520,  -49.620,  1.04000,  0,  536.400,  0.00000,  0.14470,  0.00000,  0.00000,  1.00000,  1,  100.0,  447.000,  134.100
3048,  '1',  30.231,  -34.700,  51.330,  -34.700,  1.04000,  0,  289.200,  0.00000,  1.00000,  0.00000,  0.00000,  1.00000,  1,  100.0,  241.000,  72.300
3055,  '1',  30.754,  12.054,  52.220,  -35.300,  1.04000,  0,  294.200,  0.00000,  1.00000,  0.00000,  0.00000,  1.00000,  1,  100.0,  245.170,  73.550
3056,  '1',  30.754,  6.376,  52.220,  -35.300,  1.04000,  0,  294.200,  0.00000,  1.00000,  0.00000,  0.00000,  1.00000,  1,  100.0,  245.170,  73.550
3057,  '1',  30.754,  6.249,  52.220,  -35.300,  1.04000,  0,  294.200,  0.00000,  1.00000,  0.00000,  0.00000,  1.00000,  1,  100.0,  245.170,  73.550
3081,  '1',  31.234,  2.993,  53.040,  -35.860,  1.04000,  0,  298.800,  0.00000,  1.00000,  0.00000,  0.00000,  1.00000,  1,  100.0,  249.000,  74.700
3106,  '1',  26.488,  -13.359,  62.477,  -2.690,  1.00000,  0,  65.880,  0.00000,  0.29220,  0.00000,  0.00000,  1.00000,  1,  100.0,  162.800,  0.000
4026,  '1',  123.000,  81.984,  191.060,  -50.020,  1.03000,  0,  492.000,  0.00000,  0.32770,  0.00000,  0.00000,  1.00000,  1,  100.0,  410.000,  123.000
4030,  '1',  366.058,  280.221,  290.040,  -75.930,  1.01000,  0,  746.880,  0.00000,  0.27970,  0.00000,  0.00000,  1.00000,  1,  100.0,  622.400,  186.720
4047,  '1',  45.630,  11.037,  75.102,  -3.230,  1.02000,  0,  79.200,  0.00000,  0.32270,  0.00000,  0.00000,  1.00000,  1,  100.0,  195.700,  0.000
4058,  '1',  83.520,  34.083,  73.300,  -15.980,  1.03000,  0,  172.800,  0.00000,  0.13700,  0.00000,  0.00000,  1.00000,  1,  100.0,  144.000,  43.200
4059,  '1',  83.520,  38.578,  73.300,  -15.980,  1.03000,  0,  172.800,  0.00000,  0.15140,  0.00000,  0.00000,  1.00000,  1,  100.0,  144.000,  43.200
4060,  '1',  83.520,  24.308,  73.300,  -15.980,  1.03000,  0,  172.800,  0.00000,  0.13940,  0.00000,  0.00000,  1.00000,  1,  100.0,  144.000,  43.200
4061,  '1',  124.080,  35.632,  87.720,  -19.130,  1.03000,  0,  206.800,  0.00000,  0.21560,  0.00000,  0.00000,  1.00000,  1,  100.0,  172.330,  51.700
4062,  '1',  124.080,  27.975,  87.720,  -19.130,  1.03000,  0,  206.800,  0.00000,  0.25930,  0.00000,  0.00000,  1.00000,  1,  100.0,  172.330,  51.700
4063,  '1',  124.080,  36.720,  87.720,  -19.130,  1.03000,  0,  206.800,  0.00000,  0.14410,  0.00000,  0.00000,  1.00000,  1,  100.0,  172.330,  51.700
4082,  '1',  209.320,  39.888,  123.890,  -27.020,  1.04000,  0,  292.080,  0.00000,  0.13810,  0.00000,  0.00000,  1.00000,  1,  100.0,  243.400,  73.020
4083,  '1',  209.320,  42.043,  123.890,  -27.020,  1.04000,  0,  292.080,  0.00000,  0.15700,  0.00000,  0.00000,  1.00000,  1,  100.0,  243.400,  73.020
4084,  '1',  209.320,  70.776,  123.890,  -27.020,  1.04000,  0,  292.080,  0.00000,  0.19110,  0.00000,  0.00000,  1.00000,  1,  100.0,  243.400,  73.020
4085,  '1',  352.000,  84.069,  179.170,  -39.070,  1.04000,  0,  422.400,  0.00000,  0.31920,  0.00000,  0.00000,  1.00000,  1,  100.0,  352.000,  105.600
4115,  '1',  39.540,  44.551,  67.090,  -14.630,  1.04000,  0,  158.160,  0.00000,  0.11310,  0.00000,  0.00000,  1.00000,  1,  100.0,  131.800,  39.540
4116,  '1',  39.540,  41.956,  67.090,  -14.630,  1.04000,  0,  158.160,  0.00000,  0.15150,  0.00000,  0.00000,  1.00000,  1,  100.0,  131.800,  39.540
4153,  '1',  35.524,  60.320,  60.320,  -40.780,  1.04000,  0,  339.840,  0.00000,  1.00000,  0.00000,  0.00000,  1.00000,  1,  100.0,  283.200,  84.960
4160,  '1',  142.390,  85.416,  100.660,  -21.950,  1.03000,  0,  237.320,  0.00000,  0.18820,  0.00000,  0.00000,  1.00000,  1,  100.0,  197.770,  59.330
4161,  '1',  142.390,  38.843,  100.660,  -21.950,  1.03000,  0,  237.320,  0.00000,  0.12390,  0.00000,  0.00000,  1.00000,  1,  100.0,  197.770,  59.330
4162,  '1',  142.390,  36.158,  100.660,  -21.950,  1.03000,  0,  237.320,  0.00000,  0.17220,  0.00000,  0.00000,  1.00000,  1,  100.0,  197.770,  59.330
4192,  '1',  1085.790,  140.474,  688.320,  -150.120,  1.02000,  0,  1622.76,  0.00000,  0.14340,  0.00000,  0.00000,  1.00000,  1,  100.0,  1352.31,  405.690
5037,  '1',  308.470,  -23.367,  157.010,  -34.240,  1.02000,  0,  370.160,  0.00000,  0.29910,  0.00000,  0.00000,  1.00000,  1,  100.0,  308.470,  92.540
5038,  '1',  308.470,  -21.799,  157.010,  -34.240,  1.02000,  0,  370.160,  0.00000,  0.12330,  0.00000,  0.00000,  1.00000,  1,  100.0,  308.470,  92.540
5039,  '1',  308.470,  -34.240,  157.010,  -34.240,  1.02000,  0,  370.160,  0.00000,  0.21470,  0.00000,  0.00000,  1.00000,  1,  100.0,  308.470,  92.540
5040,  '1',  308.470,  -16.894,  157.010,  -34.240,  1.02000,  0,  370.160,  0.00000,  0.19240,  0.00000,  0.00000,  1.00000,  1,  100.0,  308.470,  92.540
5041,  '1',  308.470,  -27.197,  157.010,  -34.240,  1.02000,  0,  370.160,  0.00000,  0.11590,  0.00000,  0.00000,  1.00000,  1,  100.0,  308.470,  92.540
5042,  '1',  308.470,  -19.546,  157.010,  -34.240,  1.02000,  0,  370.160,  0.00000,  0.19130,  0.00000,  0.00000,  1.00000,  1,  100.0,  308.470,  92.540
5057,  '1',  317.350,  -35.230,  161.530,  -35.230,  1.00000,  0,  380.820,  0.00000,  0.19130,  0.00000,  0.00000,  1.00000,  1,  100.0,  317.350,  95.200
5058,  '1',  317.350,  -35.230,  161.530,  -35.230,  1.00000,  0,  380.820,  0.00000,  0.29820,  0.00000,  0.00000,  1.00000,  1,  100.0,  317.350,  95.200
5067,  '1',  438.270,  24.906,  223.080,  -48.650,  1.03000,  0,  525.920,  0.00000,  0.32610,  0.00000,  0.00000,  1.00000,  1,  100.0,  438.270,  131.480
5068,  '1',  438.270,  22.341,  223.080,  -48.650,  1.03000,  0,  525.920,  0.00000,  0.11690,  0.00000,  0.00000,  1.00000,  1,  100.0,  438.270,  131.480
5069,  '1',  438.270,  20.807,  223.080,  -48.650,  1.03000,  0,  525.920,  0.00000,  0.10560,  0.00000,  0.00000,  1.00000,  1,  100.0,  438.270,  131.480
5166,  '1',  73.370,  35.831,  64.390,  -14.040,  1.04000,  0,  151.800,  0.00000,  0.13910,  0.00000,  0.00000,  1.00000,  1,  100.0,  126.500,  37.950
5206,  '1',  213.860,  -27.600,  126.570,  -27.600,  1.01000,  0,  298.400,  0.00000,  0.11980,  0.00000,  0.00000,  1.00000,  1,  100.0,  248.670,  74.600
5207,  '1',  213.860,  -27.600,  126.570,  -27.600,  1.01000,  0,  298.400,  0.00000,  0.18090,  0.00000,  0.00000,  1.00000,  1,  100.0,  248.670,  74.600
5208,  '1',  213.860,  -27.600,  126.570,  -27.600,  1.01000,  0,  298.400,  0.00000,  0.10560,  0.00000,  0.00000,  1.00000,  1,  100.0,  248.670,  74.600
5262,  '1',  1215.000,  -99.630,  447.120,  -99.630,  1.01000,  0,  1458.00,  0.00000,  0.26310,  0.00000,  0.00000,  1.00000,  1,  100.0,  1215.00,  364.500
5263,  '1',  1215.000,  -99.630,  447.120,  -99.630,  1.01000,  0,  1458.00,  0.00000,  0.16260,  0.00000,  0.00000,  1.00000,  1,  100.0,  1215.00,  364.500
5281,  '1',  192.770,  -29.720,  136.280,  -29.720,  1.00000,  0,  321.280,  0.00000,  0.10660,  0.00000,  0.00000,  1.00000,  1,  100.0,  267.730,  80.320
5282,  '1',  192.770,  -29.720,  136.280,  -29.720,  1.00000,  0,  321.280,  0.00000,  0.23940,  0.00000,  0.00000,  1.00000,  1,  100.0,  267.730,  80.320
5283,  '1',  192.760,  -29.720,  136.280,  -29.720,  1.00000,  0,  321.280,  0.00000,  0.10650,  0.00000,  0.00000,  1.00000,  1,  100.0,  267.730,  80.320
5298,  '1',  66.700,  58.530,  58.530,  -12.760,  1.04000,  0,  138.000,  0.00000,  0.13260,  0.00000,  0.00000,  1.00000,  1,  100.0,  115.000,  34.500
5299,  '1',  66.700,  45.949,  58.530,  -12.760,  1.04000,  0,  138.000,  0.00000,  0.32280,  0.00000,  0.00000,  1.00000,  1,  100.0,  115.000,  34.500
5300,  '1',  66.700,  55.376,  58.530,  -12.760,  1.04000,  0,  138.000,  0.00000,  0.21910,  0.00000,  0.00000,  1.00000,  1,  100.0,  115.000,  34.500
5302,  '1',  333.900,  62.041,  236.050,  -51.480,  1.04000,  0,  556.500,  0.00000,  0.13300,  0.00000,  0.00000,  1.00000,  1,  100.0,  463.750,  139.130
5303,  '1',  333.900,  81.029,  236.050,  -51.480,  1.04000,  0,  556.500,  0.00000,  0.17920,  0.00000,  0.00000,  1.00000,  1,  100.0,  463.750,  139.130
5319,  '1',  189.220,  -29.170,  133.770,  -29.170,  1.01000,  0,  315.360,  0.00000,  0.25070,  0.00000,  0.00000,  1.00000,  1,  100.0,  262.800,  78.840
5320,  '1',  189.220,  -29.170,  133.770,  -29.170,  1.01000,  0,  315.360,  0.00000,  0.28140,  0.00000,  0.00000,  1.00000,  1,  100.0,  262.800,  78.840
5321,  '1',  189.220,  -29.170,  133.770,  -29.170,  1.01000,  0,  315.360,  0.00000,  0.12810,  0.00000,  0.00000,  1.00000,  1,  100.0,  262.800,  78.840
5324,  '1',  284.070,  58.772,  144.590,  -31.530,  1.04000,  0,  340.880,  0.00000,  0.21670,  0.00000,  0.00000,  1.00000,  1,  100.0,  284.070,  85.220
5325,  '1',  284.070,  60.837,  144.590,  -31.530,  1.04000,  0,  340.880,  0.00000,  0.15030,  0.00000,  0.00000,  1.00000,  1,  100.0,  284.070,  85.220
5326,  '1',  284.070,  144.590,  144.590,  -31.530,  1.04000,  0,  340.880,  0.00000,  0.18810,  0.00000,  0.00000,  1.00000,  1,  100.0,  284.070,  85.220
5343,  '1',  48.381,  24.486,  79.667,  -3.430,  1.04000,  0,  84.000,  0.00000,  0.24140,  0.00000,  0.00000,  1.00000,  1,  100.0,  207.500,  0.000
5360,  '1',  337.391,  -78.321,  469.730,  -122.980,  1.01000,  0,  1209.60,  0.00000,  0.25510,  0.00000,  0.00000,  1.00000,  1,  100.0,  1008.00,  302.400
5364,  '1',  183.460,  -23.680,  108.590,  -23.680,  1.00000,  0,  256.000,  0.00000,  0.13030,  0.00000,  0.00000,  1.00000,  1,  100.0,  213.330,  64.000
5365,  '1',  183.460,  -23.680,  108.590,  -23.680,  1.00000,  0,  256.000,  0.00000,  0.11650,  0.00000,  0.00000,  1.00000,  1,  100.0,  213.330,  64.000
5366,  '1',  183.460,  -23.680,  108.590,  -23.680,  1.00000,  0,  256.000,  0.00000,  0.15490,  0.00000,  0.00000,  1.00000,  1,  100.0,  213.330,  64.000
5367,  '1',  183.460,  -23.680,  108.590,  -23.680,  1.00000,  0,  256.000,  0.00000,  0.10020,  0.00000,  0.00000,  1.00000,  1,  100.0,  213.330,  64.000
5368,  '1',  183.460,  -23.680,  108.590,  -23.680,  1.00000,  0,  256.000,  0.00000,  0.36180,  0.00000,  0.00000,  1.00000,  1,  100.0,  213.330,  64.000
5369,  '1',  183.460,  -23.680,  108.590,  -23.680,  1.00000,  0,  256.000,  0.00000,  0.24440,  0.00000,  0.00000,  1.00000,  1,  100.0,  213.330,  64.000
5382,  '1',  179.740,  101.455,  106.380,  -23.200,  1.04000,  0,  250.800,  0.00000,  0.24770,  0.00000,  0.00000,  1.00000,  1,  100.0,  209.000,  62.700
5383,  '1',  179.740,  89.405,  106.380,  -23.200,  1.04000,  0,  250.800,  0.00000,  0.39820,  0.00000,  0.00000,  1.00000,  1,  100.0,  209.000,  62.700
5415,  '1',  70.760,  -13.540,  62.100,  -13.540,  1.00000,  0,  146.400,  0.00000,  0.14030,  0.00000,  0.00000,  1.00000,  1,  100.0,  122.000,  36.600
5416,  '1',  70.760,  -13.540,  62.100,  -13.540,  1.00000,  0,  146.400,  0.00000,  0.26480,  0.00000,  0.00000,  1.00000,  1,  100.0,  122.000,  36.600
5417,  '1',  70.760,  -13.540,  62.100,  -13.540,  1.00000,  0,  146.400,  0.00000,  0.16960,  0.00000,  0.00000,  1.00000,  1,  100.0,  122.000,  36.600
5418,  '1',  68.900,  -13.190,  60.470,  -13.190,  1.00000,  0,  142.560,  0.00000,  0.34000,  0.00000,  0.00000,  1.00000,  1,  100.0,  118.800,  35.640
5419,  '1',  68.900,  -13.190,  60.470,  -13.190,  1.00000,  0,  142.560,  0.00000,  0.16420,  0.00000,  0.00000,  1.00000,  1,  100.0,  118.800,  35.640
5444,  '1',  1333.260,  -223.840,  1026.440,  -223.840,  1.01000,  0,  2419.92,  0.00000,  0.34260,  0.00000,  0.00000,  1.00000,  1,  100.0,  2016.60,  604.980
6006,  '1',  153.360,  29.831,  108.420,  -23.640,  1.04000,  0,  255.600,  0.00000,  0.18770,  0.00000,  0.00000,  1.00000,  1,  100.0,  213.000,  63.900
6007,  '1',  426.000,  49.071,  216.830,  -47.290,  1.04000,  0,  511.200,  0.00000,  0.13420,  0.00000,  0.00000,  1.00000,  1,  100.0,  426.000,  127.800
6008,  '1',  142.800,  26.498,  100.950,  -22.010,  1.04000,  0,  238.000,  0.00000,  0.20160,  0.00000,  0.00000,  1.00000,  1,  100.0,  198.330,  59.500
6009,  '1',  142.800,  16.476,  100.950,  -22.010,  1.04000,  0,  238.000,  0.00000,  0.18430,  0.00000,  0.00000,  1.00000,  1,  100.0,  198.330,  59.500
6010,  '1',  142.800,  21.894,  100.950,  -22.010,  1.04000,  0,  238.000,  0.00000,  0.15620,  0.00000,  0.00000,  1.00000,  1,  100.0,  198.330,  59.500
6042,  '1',  74.658,  15.098,  122.908,  -5.290,  1.04000,  0,  129.600,  0.00000,  0.18770,  0.00000,  0.00000,  1.00000,  1,  100.0,  320.200,  0.000
6069,  '1',  130.590,  17.872,  92.320,  -20.130,  1.03000,  0,  217.640,  0.00000,  0.22480,  0.00000,  0.00000,  1.00000,  1,  100.0,  181.370,  54.410
6070,  '1',  130.590,  8.411,  92.320,  -20.130,  1.03000,  0,  217.640,  0.00000,  0.24660,  0.00000,  0.00000,  1.00000,  1,  100.0,  181.370,  54.410
6071,  '1',  130.590,  23.427,  92.320,  -20.130,  1.03000,  0,  217.640,  0.00000,  0.15280,  0.00000,  0.00000,  1.00000,  1,  100.0,  181.370,  54.410
6072,  '1',  130.590,  10.272,  92.320,  -20.130,  1.03000,  0,  217.640,  0.00000,  0.19250,  0.00000,  0.00000,  1.00000,  1,  100.0,  181.370,  54.410
6073,  '1',  130.590,  13.760,  92.320,  -20.130,  1.03000,  0,  217.640,  0.00000,  0.14260,  0.00000,  0.00000,  1.00000,  1,  100.0,  181.370,  54.410
6074,  '1',  130.590,  13.040,  92.320,  -20.130,  1.03000,  0,  217.640,  0.00000,  0.11150,  0.00000,  0.00000,  1.00000,  1,  100.0,  181.370,  54.410
6078,  '1',  169.000,  -3.966,  262.510,  -68.730,  1.00000,  0,  676.000,  0.00000,  0.28900,  0.00000,  0.00000,  1.00000,  1,  100.0,  563.330,  169.000
6079,  '1',  169.000,  -9.121,  262.510,  -68.730,  1.00000,  0,  676.000,  0.00000,  0.25330,  0.00000,  0.00000,  1.00000,  1,  100.0,  563.330,  169.000
6080,  '1',  169.000,  -5.970,  262.510,  -68.730,  1.00000,  0,  676.000,  0.00000,  0.32510,  0.00000,  0.00000,  1.00000,  1,  100.0,  563.330,  169.000
6106,  '1',  70.180,  61.590,  61.590,  -13.430,  1.04000,  0,  145.200,  0.00000,  0.12010,  0.00000,  0.00000,  1.00000,  1,  100.0,  121.000,  36.300
6110,  '1',  177.180,  57.772,  275.220,  -72.050,  1.04000,  0,  708.720,  0.00000,  0.16800,  0.00000,  0.00000,  1.00000,  1,  100.0,  590.600,  177.180
6111,  '1',  198.450,  58.566,  308.260,  -80.700,  1.04000,  0,  793.800,  0.00000,  0.21900,  0.00000,  0.00000,  1.00000,  1,  100.0,  661.500,  198.450
6145,  '1',  446.000,  33.733,  227.010,  -49.510,  1.03000,  0,  535.200,  0.00000,  0.14770,  0.00000,  0.00000,  1.00000,  1,  100.0,  446.000,  133.800
6146,  '1',  446.000,  34.534,  227.010,  -49.510,  1.03000,  0,  535.200,  0.00000,  0.11950,  0.00000,  0.00000,  1.00000,  1,  100.0,  446.000,  133.800
6147,  '1',  537.017,  41.493,  474.390,  -103.450,  1.03000,  0,  1118.40,  0.00000,  0.10440,  0.00000,  0.00000,  1.00000,  1,  100.0,  932.000,  279.600
6148,  '1',  216.600,  45.209,  367.500,  -80.140,  1.03000,  0,  866.400,  0.00000,  0.23830,  0.00000,  0.00000,  1.00000,  1,  100.0,  722.000,  216.600
6149,  '1',  216.600,  88.449,  367.500,  -80.140,  1.03000,  0,  866.400,  0.00000,  0.12770,  0.00000,  0.00000,  1.00000,  1,  100.0,  722.000,  216.600
6164,  '1',  169.240,  41.035,  119.640,  -26.090,  1.03000,  0,  282.060,  0.00000,  0.30070,  0.00000,  0.00000,  1.00000,  1,  100.0,  235.050,  70.520
6165,  '1',  169.240,  36.200,  119.640,  -26.090,  1.03000,  0,  282.060,  0.00000,  0.18390,  0.00000,  0.00000,  1.00000,  1,  100.0,  235.050,  70.520
6166,  '1',  169.240,  86.157,  119.640,  -26.090,  1.03000,  0,  282.060,  0.00000,  0.25100,  0.00000,  0.00000,  1.00000,  1,  100.0,  235.050,  70.520
6167,  '1',  169.240,  46.487,  119.640,  -26.090,  1.03000,  0,  282.060,  0.00000,  0.13970,  0.00000,  0.00000,  1.00000,  1,  100.0,  235.050,  70.520
6213,  '1',  41.479,  2.677,  68.286,  -2.940,  1.04000,  0,  72.000,  0.00000,  0.33650,  0.00000,  0.00000,  1.00000,  1,  100.0,  177.900,  0.000
6214,  '1',  128.775,  4.822,  212.059,  -9.130,  1.04000,  0,  223.600,  0.00000,  0.21900,  0.00000,  0.00000,  1.00000,  1,  100.0,  552.300,  0.000
6215,  '1',  128.775,  17.183,  212.059,  -9.130,  1.04000,  0,  223.600,  0.00000,  0.20110,  0.00000,  0.00000,  1.00000,  1,  100.0,  552.300,  0.000
6216,  '1',  128.775,  7.749,  212.059,  -9.130,  1.04000,  0,  223.600,  0.00000,  0.37760,  0.00000,  0.00000,  1.00000,  1,  100.0,  552.300,  0.000
6243,  '1',  157.380,  74.438,  93.150,  -20.310,  1.04000,  0,  219.600,  0.00000,  0.28800,  0.00000,  0.00000,  1.00000,  1,  100.0,  183.000,  54.900
6244,  '1',  298.000,  90.016,  151.680,  -33.080,  1.04000,  0,  357.600,  0.00000,  0.12500,  0.00000,  0.00000,  1.00000,  1,  100.0,  298.000,  89.400
6245,  '1',  298.000,  104.896,  151.680,  -33.080,  1.04000,  0,  357.600,  0.00000,  0.24960,  0.00000,  0.00000,  1.00000,  1,  100.0,  298.000,  89.400
6246,  '1',  298.000,  151.680,  151.680,  -33.080,  1.04000,  0,  357.600,  0.00000,  0.16990,  0.00000,  0.00000,  1.00000,  1,  100.0,  298.000,  89.400
6247,  '1',  157.660,  93.320,  93.320,  -20.350,  1.04000,  0,  220.000,  0.00000,  0.11730,  0.00000,  0.00000,  1.00000,  1,  100.0,  183.330,  55.000
6248,  '1',  157.660,  82.411,  93.320,  -20.350,  1.04000,  0,  220.000,  0.00000,  0.27550,  0.00000,  0.00000,  1.00000,  1,  100.0,  183.330,  55.000
6249,  '1',  157.660,  56.723,  93.320,  -20.350,  1.04000,  0,  220.000,  0.00000,  0.17480,  0.00000,  0.00000,  1.00000,  1,  100.0,  183.330,  55.000
6257,  '1',  139.680,  -21.530,  98.750,  -21.530,  1.02000,  0,  232.800,  0.00000,  0.15520,  0.00000,  0.00000,  1.00000,  1,  100.0,  194.000,  58.200
6258,  '1',  139.680,  -21.530,  98.750,  -21.530,  1.02000,  0,  232.800,  0.00000,  0.26310,  0.00000,  0.00000,  1.00000,  1,  100.0,  194.000,  58.200
6260,  '1',  221.020,  -28.530,  130.810,  -28.530,  1.02000,  0,  308.400,  0.00000,  0.11970,  0.00000,  0.00000,  1.00000,  1,  100.0,  257.000,  77.100
6295,  '1',  148.490,  -22.890,  104.970,  -22.890,  1.02000,  0,  247.480,  0.00000,  0.21970,  0.00000,  0.00000,  1.00000,  1,  100.0,  206.230,  61.870
6296,  '1',  148.490,  -22.890,  104.970,  -22.890,  1.02000,  0,  247.480,  0.00000,  0.25670,  0.00000,  0.00000,  1.00000,  1,  100.0,  206.230,  61.870
6297,  '1',  148.500,  -22.890,  104.970,  -22.890,  1.02000,  0,  247.480,  0.00000,  0.14170,  0.00000,  0.00000,  1.00000,  1,  100.0,  206.230,  61.900
6302,  '1',  212.640,  -27.440,  125.850,  -27.440,  1.00000,  0,  296.700,  0.00000,  0.25960,  0.00000,  0.00000,  1.00000,  1,  100.0,  247.250,  74.180
6303,  '1',  212.640,  -27.440,  125.850,  -27.440,  1.00000,  0,  296.700,  0.00000,  0.27270,  0.00000,  0.00000,  1.00000,  1,  100.0,  247.250,  74.180
6304,  '1',  212.640,  -27.440,  125.850,  -27.440,  1.00000,  0,  296.700,  0.00000,  0.11710,  0.00000,  0.00000,  1.00000,  1,  100.0,  247.250,  74.180
6305,  '1',  212.640,  -27.440,  125.850,  -27.440,  1.00000,  0,  296.700,  0.00000,  0.12770,  0.00000,  0.00000,  1.00000,  1,  100.0,  247.250,  74.180
6349,  '1',  726.000,  369.540,  369.540,  -80.580,  1.04000,  0,  871.200,  0.00000,  0.16290,  0.00000,  0.00000,  1.00000,  1,  100.0,  726.000,  217.800
7005,  '1',  117.360,  30.187,  82.970,  -18.090,  1.04000,  0,  195.600,  0.00000,  0.13000,  0.00000,  0.00000,  1.00000,  1,  100.0,  163.000,  48.900
7006,  '1',  117.360,  53.623,  82.970,  -18.090,  1.04000,  0,  195.600,  0.00000,  0.19150,  0.00000,  0.00000,  1.00000,  1,  100.0,  163.000,  48.900
7007,  '1',  117.360,  35.138,  82.970,  -18.090,  1.04000,  0,  195.600,  0.00000,  0.34300,  0.00000,  0.00000,  1.00000,  1,  100.0,  163.000,  48.900
7008,  '1',  117.360,  32.975,  82.970,  -18.090,  1.04000,  0,  195.600,  0.00000,  0.21570,  0.00000,  0.00000,  1.00000,  1,  100.0,  163.000,  48.900
7009,  '1',  117.360,  29.744,  82.970,  -18.090,  1.04000,  0,  195.600,  0.00000,  0.13060,  0.00000,  0.00000,  1.00000,  1,  100.0,  163.000,  48.900
7015,  '1',  0.000,  0.000,  2.040,  -0.440,  1.04000,  0,  4.800,  0.00000,  0.22520,  0.00000,  0.00000,  1.00000,  0,  100.0,  4.000,  1.200
7045,  '1',  135.680,  95.920,  95.920,  -20.920,  1.03000,  0,  226.140,  0.00000,  0.12400,  0.00000,  0.00000,  1.00000,  1,  100.0,  188.450,  56.530
7046,  '1',  135.680,  95.920,  95.920,  -20.920,  1.03000,  0,  226.140,  0.00000,  0.10650,  0.00000,  0.00000,  1.00000,  1,  100.0,  188.450,  56.530
7061,  '1',  66.640,  58.480,  58.480,  -12.750,  1.00000,  0,  137.880,  0.00000,  0.12410,  0.00000,  0.00000,  1.00000,  1,  100.0,  114.900,  34.470
7062,  '1',  66.640,  58.480,  58.480,  -12.750,  1.00000,  0,  137.880,  0.00000,  0.19500,  0.00000,  0.00000,  1.00000,  1,  100.0,  114.900,  34.470
7063,  '1',  66.640,  58.480,  58.480,  -12.750,  1.00000,  0,  137.880,  0.00000,  0.15790,  0.00000,  0.00000,  1.00000,  1,  100.0,  114.900,  34.470
7064,  '1',  66.640,  58.480,  58.480,  -12.750,  1.00000,  0,  137.880,  0.00000,  0.22800,  0.00000,  0.00000,  1.00000,  1,  100.0,  114.900,  34.470
7065,  '1',  66.640,  58.480,  58.480,  -12.750,  1.00000,  0,  137.880,  0.00000,  0.22800,  0.00000,  0.00000,  1.00000,  1,  100.0,  114.900,  34.470
7066,  '1',  66.640,  58.480,  58.480,  -12.750,  1.00000,  0,  137.880,  0.00000,  0.34800,  0.00000,  0.00000,  1.00000,  1,  100.0,  114.900,  34.470
7079,  '1',  228.650,  26.492,  116.380,  -25.380,  1.04000,  0,  274.380,  0.00000,  0.13630,  0.00000,  0.00000,  1.00000,  1,  100.0,  228.650,  68.590
7080,  '1',  228.650,  21.317,  116.380,  -25.380,  1.04000,  0,  274.380,  0.00000,  0.17160,  0.00000,  0.00000,  1.00000,  1,  100.0,  228.650,  68.590
7081,  '1',  228.650,  21.964,  116.380,  -25.380,  1.04000,  0,  274.380,  0.00000,  0.24350,  0.00000,  0.00000,  1.00000,  1,  100.0,  228.650,  68.590
7082,  '1',  228.650,  25.490,  116.380,  -25.380,  1.04000,  0,  274.380,  0.00000,  0.26430,  0.00000,  0.00000,  1.00000,  1,  100.0,  228.650,  68.590
7098,  '1',  2794.080,  3097.546,  498.380,  -111.050,  1.00000,  0,  3600.00,  0.00000,  0.28190,  0.00000,  0.00000,  1.00000,  1,  100.0,  1354.30,  406.290
7099,  '1',  1354.300,  498.380,  498.380,  -111.050,  1.00000,  0,  1625.16,  0.00000,  0.27430,  0.00000,  0.00000,  1.00000,  1,  100.0,  1354.30,  406.290
7107,  '1',  108.000,  66.834,  76.350,  -16.650,  1.04000,  0,  180.000,  0.00000,  0.29250,  0.00000,  0.00000,  1.00000,  1,  100.0,  150.000,  45.000
7108,  '1',  0.000,  18.528,  25.960,  -5.660,  1.04000,  0,  61.200,  0.00000,  0.13470,  0.00000,  0.00000,  1.00000,  0,  100.0,  51.000,  15.300
7109,  '1',  0.000,  22.506,  25.960,  -5.660,  1.04000,  0,  61.200,  0.00000,  0.17780,  0.00000,  0.00000,  1.00000,  0,  100.0,  51.000,  15.300
7110,  '1',  168.560,  37.210,  99.760,  -21.760,  1.04000,  0,  235.200,  0.00000,  0.13730,  0.00000,  0.00000,  1.00000,  1,  100.0,  196.000,  58.800
7111,  '1',  168.560,  36.257,  99.760,  -21.760,  1.04000,  0,  235.200,  0.00000,  0.19180,  0.00000,  0.00000,  1.00000,  1,  100.0,  196.000,  58.800
7112,  '1',  168.560,  57.813,  99.760,  -21.760,  1.04000,  0,  235.200,  0.00000,  0.17280,  0.00000,  0.00000,  1.00000,  1,  100.0,  196.000,  58.800
7113,  '1',  168.560,  31.001,  99.760,  -21.760,  1.04000,  0,  235.200,  0.00000,  0.16060,  0.00000,  0.00000,  1.00000,  1,  100.0,  196.000,  58.800
7114,  '1',  168.560,  61.348,  99.760,  -21.760,  1.04000,  0,  235.200,  0.00000,  0.20370,  0.00000,  0.00000,  1.00000,  1,  100.0,  196.000,  58.800
7115,  '1',  168.560,  61.656,  99.760,  -21.760,  1.04000,  0,  235.200,  0.00000,  0.17540,  0.00000,  0.00000,  1.00000,  1,  100.0,  196.000,  58.800
7121,  '1',  0.000,  0.000,  1.880,  -0.410,  1.04000,  0,  4.440,  0.00000,  0.10630,  0.00000,  0.00000,  1.00000,  0,  100.0,  3.700,  1.110
7122,  '1',  0.000,  0.000,  2.190,  -0.480,  1.04000,  0,  5.160,  0.00000,  0.14330,  0.00000,  0.00000,  1.00000,  0,  100.0,  4.300,  1.290
7133,  '1',  0.000,  -1.810,  8.300,  -1.810,  1.00000,  0,  19.560,  0.00000,  0.13400,  0.00000,  0.00000,  1.00000,  0,  100.0,  16.300,  4.890
7134,  '1',  177.630,  -22.930,  105.130,  -22.930,  1.00000,  0,  247.860,  0.00000,  0.12450,  0.00000,  0.00000,  1.00000,  1,  100.0,  206.550,  61.970
7135,  '1',  177.630,  -22.930,  105.130,  -22.930,  1.00000,  0,  247.860,  0.00000,  0.10080,  0.00000,  0.00000,  1.00000,  1,  100.0,  206.550,  61.970
7136,  '1',  177.630,  -22.930,  105.130,  -22.930,  1.00000,  0,  247.860,  0.00000,  0.12110,  0.00000,  0.00000,  1.00000,  1,  100.0,  206.550,  61.970
7137,  '1',  177.630,  -22.930,  105.130,  -22.930,  1.00000,  0,  247.860,  0.00000,  0.35250,  0.00000,  0.00000,  1.00000,  1,  100.0,  206.550,  61.970
7138,  '1',  380.700,  -42.260,  193.780,  -42.260,  1.00000,  0,  456.840,  0.00000,  0.12060,  0.00000,  0.00000,  1.00000,  1,  100.0,  380.700,  114.210
7139,  '1',  0.000,  -6.550,  30.030,  -6.550,  1.00000,  0,  70.800,  0.00000,  0.12350,  0.00000,  0.00000,  1.00000,  0,  100.0,  59.000,  17.700
7140,  '1',  0.000,  -6.550,  30.030,  -6.550,  1.00000,  0,  70.800,  0.00000,  0.29730,  0.00000,  0.00000,  1.00000,  0,  100.0,  59.000,  17.700
7141,  '1',  0.000,  -6.550,  30.030,  -6.550,  1.00000,  0,  70.800,  0.00000,  0.23590,  0.00000,  0.00000,  1.00000,  0,  100.0,  59.000,  17.700
7142,  '1',  0.000,  -6.550,  30.030,  -6.550,  1.00000,  0,  70.800,  0.00000,  0.23560,  0.00000,  0.00000,  1.00000,  0,  100.0,  59.000,  17.700
7146,  '1',  0.000,  -1.130,  5.190,  -1.130,  1.01000,  0,  12.240,  0.00000,  0.16660,  0.00000,  0.00000,  1.00000,  0,  100.0,  10.200,  3.060
7162,  '1',  64.150,  56.300,  56.300,  -12.280,  1.04000,  0,  132.720,  0.00000,  0.21300,  0.00000,  0.00000,  1.00000,  1,  100.0,  110.600,  33.180
7163,  '1',  64.150,  52.104,  56.300,  -12.280,  1.04000,  0,  132.720,  0.00000,  0.10860,  0.00000,  0.00000,  1.00000,  1,  100.0,  110.600,  33.180
7164,  '1',  64.150,  56.300,  56.300,  -12.280,  1.04000,  0,  132.720,  0.00000,  0.20360,  0.00000,  0.00000,  1.00000,  1,  100.0,  110.600,  33.180
...
 0 /End of Generator data, Begin Branch data
1033,  1048,  '99',  0.25118,  1.40923,  0.00000,  0.00,  0.00,  0.00,  0.00000,  0.000,  0.00000,  0.00000,  0.00000,  0.00000,  1
1033,  1049,  '99',  0.38014,  2.53391,  0.00000,  0.00,  0.00,  0.00,  0.00000,  0.000,  0.00000,  0.00000,  0.00000,  0.00000,  1
1033,  1053,  '99',  0.28927,  1.89350,  0.00000,  0.00,  0.00,  0.00,  0.00000,  0.000,  0.00000,  0.00000,  0.00000,  0.00000,  1
1033,  1063,  '99',  0.07331,  2.11236,  0.00000,  0.00,  0.00,  0.00,  0.00000,  0.000,  0.00000,  0.00000,  0.00000,  0.00000,  1
1033,  1081,  '99',  0.00296,  0.03053,  0.00000,  0.00,  0.00,  0.00,  0.00000,  0.000,  0.00000,  0.00000,  0.00000,  0.00000,  1
1033,  3045,  '99',  0.16907,  3.46247,  0.00000,  0.00,  0.00,  0.00,  0.00000,  0.000,  0.00000,  0.00000,  0.00000,  0.00000,  1
1033,  3048,  '99',  0.12825,  0.90732,  0.00000,  0.00,  0.00,  0.00,  0.00000,  0.000,  0.00000,  0.00000,  0.00000,  0.00000,  1
1033,  3055,  '99',  0.22671,  2.86806,  0.00000,  0.00,  0.00,  0.00,  0.00000,  0.000,  0.00000,  0.00000,  0.00000,  0.00000,  1
1033,  4026,  '99',  0.18459,  3.72239,  0.00000,  0.00,  0.00,  0.00,  0.00000,  0.000,  0.00000,  0.00000,  0.00000,  0.00000,  1
1033,  4115,  '99',  0.12071,  2.60491,  0.00000,  0.00,  0.00,  0.00,  0.00000,  0.000,  0.00000,  0.00000,  0.00000,  0.00000,  1
1033,  4116,  '99',  0.15387,  2.73960,  0.00000,  0.00,  0.00,  0.00,  0.00000,  0.000,  0.00000,  0.00000,  0.00000,  0.00000,  1
1048,  1049,  '99',  0.00227,  0.33462,  0.00000,  0.00,  0.00,  0.00,  0.00000,  0.000,  0.00000,  0.00000,  0.00000,  0.00000,  1
1048,  1053,  '99',  0.00237,  0.25015,  0.00000,  0.00,  0.00,  0.00,  0.00000,  0.000,  0.00000,  0.00000,  0.00000,  0.00000,  1
1048,  1072,  '99',  0.83936,  4.44025,  0.00000,  0.00,  0.00,  0.00,  0.00000,  0.000,  0.00000,  0.00000,  0.00000,  0.00000,  1
1048,  1076,  '99',  0.39856,  2.57444,  0.00000,  0.00,  0.00,  0.00,  0.00000,  0.000,  0.00000,  0.00000,  0.00000,  0.00000,  1
1048,  1081,  '99',  0.49446,  3.16867,  0.00000,  0.00,  0.00,  0.00,  0.00000,  0.000,  0.00000,  0.00000,  0.00000,  0.00000,  1
1048,  3048,  '99',  0.36356,  2.15233,  0.00000,  0.00,  0.00,  0.00,  0.00000,  0.000,  0.00000,  0.00000,  0.00000,  0.00000,  1
1049,  1053,  '99',  -0.00807,  0.44771,  0.00000,  0.00,  0.00,  0.00,  0.00000,  0.000,  0.00000,  0.00000,  0.00000,  0.00000,  1
1049,  1076,  '99',  0.58654,  4.62608,  0.00000,  0.00,  0.00,  0.00,  0.00000,  0.000,  0.00000,  0.00000,  0.00000,  0.00000,  1
1049,  3048,  '99',  0.54466,  3.86907,  0.00000,  0.00,  0.00,  0.00,  0.00000,  0.000,  0.00000,  0.00000,  0.00000,  0.00000,  1
1053,  1076,  '99',  0.44777,  3.45711,  0.00000,  0.00,  0.00,  0.00,  0.00000,  0.000,  0.00000,  0.00000,  0.00000,  0.00000,  1
1053,  1081,  '99',  0.00299,  0.02979,  0.00000,  0.00,  0.00,  0.00,  0.00000,  0.000,  0.00000,  0.00000,  0.00000,  0.00000,  1
1053,  3048,  '99',  0.41494,  2.89129,  0.00000,  0.00,  0.00,  0.00,  0.00000,  0.000,  0.00000,  0.00000,  0.00000,  0.00000,  1
1063,  1072,  '99',  0.56257,  4.41783,  0.00000,  0.00,  0.00,  0.00,  0.00000,  0.000,  0.00000,  0.00000,  0.00000,  0.00000,  1
1063,  1076,  '99',  0.23952,  2.55622,  0.00000,  0.00,  0.00,  0.00,  0.00000,  0.000,  0.00000,  0.00000,  0.00000,  0.00000,  1
1063,  1081,  '99',  0.17984,  1.83275,  0.00000,  0.00,  0.00,  0.00,  0.00000,  0.000,  0.00000,  0.00000,  0.00000,  0.00000,  1
1063,  3045,  '99',  0.13999,  2.95012,  0.00000,  0.00,  0.00,  0.00,  0.00000,  0.000,  0.00000,  0.00000,  0.00000,  0.00000,  1
1063,  3048,  '99',  0.08774,  0.65900,  0.00000,  0.00,  0.00,  0.00,  0.00000,  0.000,  0.00000,  0.00000,  0.00000,  0.00000,  1
1063,  3055,  '99',  0.40705,  3.79399,  0.00000,  0.00,  0.00,  0.00,  0.00000,  0.000,  0.00000,  0.00000,  0.00000,  0.00000,  1
1072,  1073,  '99',  0.13358,  1.23048,  0.00000,  0.00,  0.00,  0.00,  0.00000,  0.000,  0.00000,  0.00000,  0.00000,  0.00000,  1
1072,  1074,  '99',  0.06446,  1.17925,  0.00000,  0.00,  0.00,  0.00,  0.00000,  0.000,  0.00000,  0.00000,  0.00000,  0.00000,  1
1072,  1075,  '99',  0.04333,  0.94390,  0.00000,  0.00,  0.00,  0.00,  0.00000,  0.000,  0.00000,  0.00000,  0.00000,  0.00000,  1
1072,  1076,  '99',  0.01732,  0.46758,  0.00000,  0.00,  0.00,  0.00,  0.00000,  0.000,  0.00000,  0.00000,  0.00000,  0.00000,  1
1072,  1077,  '99',  0.07039,  1.14073,  0.00000,  0.00,  0.00,  0.00,  0.00000,  0.000,  0.00000,  0.00000,  0.00000,  0.00000,  1
1072,  1081,  '99',  0.02269,  0.61512,  0.00000,  0.00,  0.00,  0.00,  0.00000,  0.000,  0.00000,  0.00000,  0.00000,  0.00000,  1
1072,  3048,  '99',  0.01778,  0.47008,  0.00000,  0.00,  0.00,  0.00,  0.00000,  0.000,  0.00000,  0.00000,  0.00000,  0.00000,  1
1073,  1074,  '99',  0.16634,  1.79328,  0.00000,  0.00,  0.00,  0.00,  0.00000,  0.000,  0.00000,  0.00000,  0.00000,  0.00000,  1
1073,  1075,  '99',  0.12055,  1.43587,  0.00000,  0.00,  0.00,  0.00,  0.00000,  0.000,  0.00000,  0.00000,  0.00000,  0.00000,  1
1073,  1076,  '99',  0.05340,  0.71153,  0.00000,  0.00,  0.00,  0.00,  0.00000,  0.000,  0.00000,  0.00000,  0.00000,  0.00000,  1
1073,  1077,  '99',  0.17315,  1.73425,  0.00000,  0.00,  0.00,  0.00,  0.00000,  0.000,  0.00000,  0.00000,  0.00000,  0.00000,  1
1073,  1081,  '99',  0.07011,  0.93605,  0.00000,  0.00,  0.00,  0.00,  0.00000,  0.000,  0.00000,  0.00000,  0.00000,  0.00000,  1
1073,  3048,  '99',  0.05424,  0.71532,  0.00000,  0.00,  0.00,  0.00,  0.00000,  0.000,  0.00000,  0.00000,  0.00000,  0.00000,  1
1074,  1075,  '99',  0.04156,  1.37428,  0.00000,  0.00,  0.00,  0.00,  0.00000,  0.000,  0.00000,  0.00000,  0.00000,  0.00000,  1
1074,  1076,  '99',  0.01455,  0.68069,  0.00000,  0.00,  0.00,  0.00,  0.00000,  0.000,  0.00000,  0.00000,  0.00000,  0.00000,  1
1074,  1077,  '99',  0.07644,  1.66127,  0.00000,  0.00,  0.00,  0.00,  0.00000,  0.000,  0.00000,  0.00000,  0.00000,  0.00000,  1
1074,  1081,  '99',  0.01902,  0.89546,  0.00000,  0.00,  0.00,  0.00,  0.00000,  0.000,  0.00000,  0.00000,  0.00000,  0.00000,  1
1074,  3048,  '99',  0.01516,  0.68434,  0.00000,  0.00,  0.00,  0.00,  0.00000,  0.000,  0.00000,  0.00000,  0.00000,  0.00000,  1
1075,  1076,  '99',  0.00689,  0.54468,  0.00000,  0.00,  0.00,  0.00,  0.00000,  0.000,  0.00000,  0.00000,  0.00000,  0.00000,  1
1075,  1077,  '99',  0.04955,  1.32962,  0.00000,  0.00,  0.00,  0.00,  0.00000,  0.000,  0.00000,  0.00000,  0.00000,  0.00000,  1
1075,  1081,  '99',  0.00896,  0.71654,  0.00000,  0.00,  0.00,  0.00,  0.00000,  0.000,  0.00000,  0.00000,  0.00000,  0.00000,  1
1075,  3048,  '99',  0.00735,  0.54761,  0.00000,  0.00,  0.00,  0.00,  0.00000,  0.000,  0.00000,  0.00000,  0.00000,  0.00000,  1
1076,  1077,  '99',  0.01870,  0.65861,  0.00000,  0.00,  0.00,  0.00,  0.00000,  0.000,  0.00000,  0.00000,  0.00000,  0.00000,  1
1076,  1081,  '99',  0.00129,  0.35485,  0.00000,  0.00,  0.00,  0.00,  0.00000,  0.000,  0.00000,  0.00000,  0.00000,  0.00000,  1
1076,  3048,  '99',  0.00124,  0.27119,  0.00000,  0.00,  0.00,  0.00,  0.00000,  0.000,  0.00000,  0.00000,  0.00000,  0.00000,  1
1077,  1081,  '99',  0.02448,  0.86642,  0.00000,  0.00,  0.00,  0.00,  0.00000,  0.000,  0.00000,  0.00000,  0.00000,  0.00000,  1
1077,  3048,  '99',  0.01932,  0.66214,  0.00000,  0.00,  0.00,  0.00,  0.00000,  0.000,  0.00000,  0.00000,  0.00000,  0.00000,  1
1081,  3045,  '99',  0.03556,  0.78952,  0.00000,  0.00,  0.00,  0.00,  0.00000,  0.000,  0.00000,  0.00000,  0.00000,  0.00000,  1
1081,  3048,  '99',  0.01143,  0.16381,  0.00000,  0.00,  0.00,  0.00,  0.00000,  0.000,  0.00000,  0.00000,  0.00000,  0.00000,  1
1081,  3055,  '99',  0.04890,  0.71549,  0.00000,  0.00,  0.00,  0.00,  0.00000,  0.000,  0.00000,  0.00000,  0.00000,  0.00000,  1
1081,  3056,  '99',  0.08658,  1.35154,  0.00000,  0.00,  0.00,  0.00,  0.00000,  0.000,  0.00000,  0.00000,  0.00000,  0.00000,  1
1081,  3057,  '99',  0.09767,  1.31177,  0.00000,  0.00,  0.00,  0.00,  0.00000,  0.000,  0.00000,  0.00000,  0.00000,  0.00000,  1
1081,  3081,  '99',  0.52476,  3.51415,  0.00000,  0.00,  0.00,  0.00,  0.00000,  0.000,  0.00000,  0.00000,  0.00000,  0.00000,  1
2004,  2005,  '99',  -0.00116,  0.09465,  0.00000,  0.00,  0.00,  0.00,  0.00000,  0.000,  0.00000,  0.00000,  0.00000,  0.00000,  1
2004,  2006,  '99',  -0.00268,  0.14791,  0.00000,  0.00,  0.00,  0.00,  0.00000,  0.000,  0.00000,  0.00000,  0.00000,  0.00000,  1
2004,  2024,  '99',  0.00885,  0.54100,  0.00000,  0.00,  0.00,  0.00,  0.00000,  0.000,  0.00000,  0.00000,  0.00000,  0.00000,  1
2004,  2103,  '99',  0.00066,  0.14624,  0.00000,  0.00,  0.00,  0.00,  0.00000,  0.000,  0.00000,  0.00000,  0.00000,  0.00000,  1
2004,  2104,  '99',  0.00053,  0.19156,  0.00000,  0.00,  0.00,  0.00,  0.00000,  0.000,  0.00000,  0.00000,  0.00000,  0.00000,  1
2004,  2105,  '99',  0.00320,  0.30231,  0.00000,  0.00,  0.00,  0.00,  0.00000,  0.000,  0.00000,  0.00000,  0.00000,  0.00000,  1
2004,  2115,  '99',  0.04204,  1.17445,  0.00000,  0.00,  0.00,  0.00,  0.00000,  0.000,  0.00000,  0.00000,  0.00000,  0.00000,  1
2004,  2116,  '99',  0.01789,  0.61219,  0.00000,  0.00,  0.00,  0.00,  0.00000,  0.000,  0.00000,  0.00000,  0.00000,  0.00000,  1
2004,  2117,  '99',  0.03456,  1.36017,  0.00000,  0.00,  0.00,  0.00,  0.00000,  0.000,  0.00000,  0.00000,  0.00000,  0.00000,  1
2004,  2118,  '99',  0.04328,  1.50620,  0.00000,  0.00,  0.00,  0.00,  0.00000,  0.000,  0.00000,  0.00000,  0.00000,  0.00000,  1
2004,  2119,  '99',  0.02213,  0.74514,  0.00000,  0.00,  0.00,  0.00,  0.00000,  0.000,  0.00000,  0.00000,  0.00000,  0.00000,  1
...